examples/feeders/30_SE001_1/009_segmentoRamalBT.dss
New Line.RBT_102500 phases=4 bus1=ET1_100.1.2.3.4 bus2=UC102500.1.2.3.4 linecode=51_4 length=0.01881 units=km
New Line.RBT_130959 phases=2 bus1=ET1_1368.1.4 bus2=UC130959.1.4 linecode=50_2 length=0.02852 units=km
New Line.RBT_137886 phases=4 bus1=BT301351.1.2.3.4 bus2=UC137886.1.2.3.4 linecode=51_4 length=0.022 units=km
New Line.RBT_138938 phases=4 bus1=BT799531.1.2.3.4 bus2=UC138938.1.2.3.4 linecode=51_4 length=0.025 units=km
New Line.RBT_102220 phases=2 bus1=ET1_1618.2.4 bus2=UC102220.2.4 linecode=50_2 length=0.023 units=km
New Line.RBT_102487 phases=2 bus1=BT288341.2.4 bus2=UC102487.2.4 linecode=50_2 length=0.006 units=km
New Line.RBT_102488 phases=4 bus1=BT288341.1.2.3.4 bus2=UC102488.1.2.3.4 linecode=51_4 length=0.01066 units=km
New Line.RBT_102489 phases=2 bus1=BT805911.1.4 bus2=UC102489.1.4 linecode=50_2 length=0.019 units=km
New Line.RBT_102491 phases=2 bus1=BT781551.3.4 bus2=UC102491.3.4 linecode=108_2 length=0.016 units=km
New Line.RBT_135377 phases=2 bus1=BT781551.2.4 bus2=UC135377.2.4 linecode=105_2 length=0.03 units=km
New Line.RBT_132505 phases=2 bus1=BT109242.1.4 bus2=UC132505.1.4 linecode=105_2 length=0.01 units=km
New Line.RBT_133396 phases=2 bus1=BT109242.1.4 bus2=UC133396.1.4 linecode=50_2 length=0.00813 units=km
New Line.RBT_133471 phases=2 bus1=BT294321.1.4 bus2=UC133471.1.4 linecode=50_2 length=0.02769 units=km
New Line.RBT_134151 phases=2 bus1=BT294271.1.4 bus2=UC134151.1.4 linecode=50_2 length=0.028 units=km
New Line.RBT_117107 phases=2 bus1=BT294291.1.4 bus2=UC117107.1.4 linecode=50_2 length=0.029 units=km
New Line.RBT_130831 phases=3 bus1=BT294311.2.3.4 bus2=UC130831.2.3.4 linecode=83_3 length=0.01 units=km
New Line.RBT_102216 phases=4 bus1=BT294341.1.2.3.4 bus2=UC102216.1.2.3.4 linecode=51_4 length=0.02 units=km
New Line.RBT_102210 phases=4 bus1=BT294311.1.2.3.4 bus2=UC102210.1.2.3.4 linecode=51_4 length=0.027 units=km
New Line.RBT_102211 phases=4 bus1=BT294321.1.2.3.4 bus2=UC102211.1.2.3.4 linecode=51_4 length=0.028 units=km
New Line.RBT_102217 phases=4 bus1=BT367401.1.2.3.4 bus2=UC102217.1.2.3.4 linecode=51_4 length=0.015 units=km
New Line.RBT_102209 phases=2 bus1=ET1_211.1.4 bus2=UC102209.1.4 linecode=50_2 length=0.026 units=km
New Line.RBT_137897 phases=4 bus1=ET1_211.1.2.3.4 bus2=UC137897.1.2.3.4 linecode=51_4 length=0.02 units=km
New Line.RBT_102283 phases=2 bus1=BT755761.1.4 bus2=UC102283.1.4 linecode=50_2 length=0.026 units=km
New Line.RBT_3034758 phases=4 bus1=BT285831.1.2.3.4 bus2=UC3034758.1.2.3.4 linecode=51_4 length=0.01528 units=km
New Line.RBT_102213 phases=2 bus1=BT284811.2.4 bus2=UC102213.2.4 linecode=50_2 length=0.023 units=km
New Line.RBT_101661 phases=2 bus1=ET1_259.3.4 bus2=UC101661.3.4 linecode=105_2 length=0.03 units=km
New Line.RBT_134325 phases=4 bus1=ET1_259.1.2.3.4 bus2=UC134325.1.2.3.4 linecode=51_4 length=0.02646 units=km
New Line.RBT_128562 phases=4 bus1=BT646581.1.2.3.4 bus2=UC128562.1.2.3.4 linecode=51_4 length=0.009 units=km
New Line.RBT_119728 phases=4 bus1=ET1_259.1.2.3.4 bus2=UC119728.1.2.3.4 linecode=51_4 length=0.014 units=km
New Line.RBT_122519 phases=4 bus1=BT769881.1.2.3.4 bus2=UC122519.1.2.3.4 linecode=109_4 length=0.023 units=km
New Line.RBT_103903 phases=2 bus1=BT288231.2.4 bus2=UC103903.2.4 linecode=50_2 length=0.02139 units=km
New Line.RBT_103904 phases=2 bus1=BT288231.1.4 bus2=UC103904.1.4 linecode=50_2 length=0.00705 units=km
New Line.RBT_103905 phases=4 bus1=ET1_2666.1.2.3.4 bus2=UC103905.1.2.3.4 linecode=51_4 length=0.007 units=km
New Line.RBT_127313 phases=2 bus1=BT624191.1.4 bus2=UC127313.1.4 linecode=50_2 length=0.02702 units=km
New Line.RBT_129103 phases=4 bus1=BT651171.1.2.3.4 bus2=UC129103.1.2.3.4 linecode=51_4 length=0.01 units=km
New Line.RBT_103368 phases=4 bus1=ET1_2804.1.2.3.4 bus2=UC103368.1.2.3.4 linecode=109_4 length=0.013 units=km
New Line.RBT_103369 phases=4 bus1=ET1_2804.1.2.3.4 bus2=UC103369.1.2.3.4 linecode=51_4 length=0.02133 units=km
New Line.RBT_136027 phases=4 bus1=BT651171.1.2.3.4 bus2=UC136027.1.2.3.4 linecode=141_4 length=0.03 units=km
New Line.RBT_121945 phases=2 bus1=ET1_2853.1.4 bus2=UC121945.1.4 linecode=50_2 length=0.00298 units=km
New Line.RBT_129198 phases=2 bus1=ET1_294.2.4 bus2=UC129198.2.4 linecode=108_2 length=0.0237 units=km
New Line.RBT_130467 phases=2 bus1=ET1_294.1.4 bus2=UC130467.1.4 linecode=50_2 length=0.0215 units=km
New Line.RBT_130472 phases=2 bus1=ET1_294.1.4 bus2=UC130472.1.4 linecode=50_2 length=0.022 units=km
New Line.RBT_123403 phases=4 bus1=ET1_3115.1.2.3.4 bus2=UC123403.1.2.3.4 linecode=51_4 length=0.01118 units=km
New Line.RBT_104067 phases=4 bus1=BT596221.1.2.3.4 bus2=UC104067.1.2.3.4 linecode=51_4 length=0.03 units=km
New Line.RBT_103362 phases=2 bus1=BT596221.2.4 bus2=UC103362.2.4 linecode=108_2 length=0.02711 units=km
New Line.RBT_102492 phases=2 bus1=BT322041.1.4 bus2=UC102492.1.4 linecode=50_2 length=0.00927 units=km
New Line.RBT_102493 phases=4 bus1=BT288121.1.2.3.4 bus2=UC102493.1.2.3.4 linecode=51_4 length=0.012 units=km
New Line.RBT_102495 phases=4 bus1=BT296751.1.2.3.4 bus2=UC102495.1.2.3.4 linecode=51_4 length=0.01284 units=km
New Line.RBT_102478 phases=3 bus1=BT294411.1.2.4 bus2=UC102478.1.2.4 linecode=83_3 length=0.022 units=km
New Line.RBT_102260 phases=3 bus1=BT301251.1.2.4 bus2=UC102260.1.2.4 linecode=83_3 length=0.015 units=km
New Line.RBT_102262 phases=2 bus1=BT301241.1.4 bus2=UC102262.1.4 linecode=50_2 length=0.004 units=km
New Line.RBT_103366 phases=2 bus1=BT301211.1.4 bus2=UC103366.1.4 linecode=50_2 length=0.03 units=km
New Line.RBT_138079 phases=2 bus1=BT301251.2.4 bus2=UC138079.2.4 linecode=50_2 length=0.015 units=km
New Line.RBT_135494 phases=2 bus1=BT248221.2.4 bus2=UC135494.2.4 linecode=50_2 length=0.023 units=km
New Line.RBT_134755 phases=2 bus1=BT248241.2.4 bus2=UC134755.2.4 linecode=50_2 length=0.01139 units=km
New Line.RBT_127612 phases=2 bus1=BT248221.3.4 bus2=UC127612.3.4 linecode=50_2 length=0.017 units=km
New Line.RBT_101895 phases=2 bus1=BT248241.1.4 bus2=UC101895.1.4 linecode=50_2 length=0.029 units=km
New Line.RBT_102039 phases=4 bus1=ET1_3310.1.2.3.4 bus2=UC102039.1.2.3.4 linecode=51_4 length=0.00909 units=km
New Line.RBT_130891 phases=2 bus1=BT476281.1.4 bus2=UC130891.1.4 linecode=50_2 length=0.01236 units=km
New Line.RBT_118511 phases=3 bus1=BT258901.1.2.4 bus2=UC118511.1.2.4 linecode=83_3 length=0.01 units=km
New Line.RBT_122736 phases=2 bus1=BT476281.1.4 bus2=UC122736.1.4 linecode=50_2 length=0.026 units=km
New Line.RBT_119054 phases=2 bus1=BT657171.1.4 bus2=UC119054.1.4 linecode=50_2 length=0.012 units=km
New Line.RBT_119211 phases=4 bus1=BT370741.1.2.3.4 bus2=UC119211.1.2.3.4 linecode=51_4 length=0.01 units=km
New Line.RBT_129689 phases=2 bus1=BT300501.2.4 bus2=UC129689.2.4 linecode=50_2 length=0.025 units=km
New Line.RBT_132250 phases=4 bus1=BT458321.1.2.3.4 bus2=UC132250.1.2.3.4 linecode=51_4 length=0.03 units=km
New Line.RBT_102264 phases=4 bus1=BT458321.1.2.3.4 bus2=UC102264.1.2.3.4 linecode=51_4 length=0.011 units=km
New Line.RBT_102265 phases=4 bus1=BT300451.1.2.3.4 bus2=UC102265.1.2.3.4 linecode=51_4 length=0.023 units=km
New Line.RBT_102266 phases=4 bus1=BT300471.1.2.3.4 bus2=UC102266.1.2.3.4 linecode=51_4 length=0.006 units=km
New Line.RBT_102267 phases=4 bus1=ET1_34.1.2.3.4 bus2=UC102267.1.2.3.4 linecode=51_4 length=0.03 units=km
New Line.RBT_102268 phases=4 bus1=BT300481.1.2.3.4 bus2=UC102268.1.2.3.4 linecode=51_4 length=0.026 units=km
New Line.RBT_102269 phases=2 bus1=BT300591.1.4 bus2=UC102269.1.4 linecode=50_2 length=0.007 units=km
New Line.RBT_102270 phases=4 bus1=BT478281.1.2.3.4 bus2=UC102270.1.2.3.4 linecode=51_4 length=0.012 units=km
New Line.RBT_102272 phases=4 bus1=BT284851.1.2.3.4 bus2=UC102272.1.2.3.4 linecode=51_4 length=0.025 units=km
New Line.RBT_126089 phases=4 bus1=ET1_3446.1.2.3.4 bus2=UC126089.1.2.3.4 linecode=51_4 length=0.005 units=km
New Line.RBT_102569 phases=4 bus1=BT431381.1.2.3.4 bus2=UC102569.1.2.3.4 linecode=51_4 length=0.017 units=km
New Line.RBT_130225 phases=4 bus1=ET1_3536.1.2.3.4 bus2=UC130225.1.2.3.4 linecode=51_4 length=0.00299 units=km
New Line.RBT_128791 phases=4 bus1=BT634591.1.2.3.4 bus2=UC128791.1.2.3.4 linecode=51_4 length=0.02544 units=km
New Line.RBT_123131 phases=2 bus1=BT345281.1.4 bus2=UC123131.1.4 linecode=50_2 length=0.0258 units=km
New Line.RBT_133398 phases=4 bus1=ET1_382.1.2.3.4 bus2=UC133398.1.2.3.4 linecode=51_4 length=0.01369 units=km
New Line.RBT_136624 phases=4 bus1=BT9811.1.2.3.4 bus2=UC136624.1.2.3.4 linecode=51_4 length=0.03 units=km
New Line.RBT_138530 phases=2 bus1=ET1_382.3.4 bus2=UC138530.3.4 linecode=105_2 length=0.025 units=km
New Line.RBT_102026 phases=3 bus1=BT9791.1.2.4 bus2=UC102026.1.2.4 linecode=83_3 length=0.01149 units=km
New Line.RBT_102006 phases=2 bus1=BT345281.1.4 bus2=UC102006.1.4 linecode=50_2 length=0.02106 units=km
New Line.RBT_102007 phases=3 bus1=BT345291.2.3.4 bus2=UC102007.2.3.4 linecode=110_3 length=0.02412 units=km
New Line.RBT_102008 phases=4 bus1=BT9772.1.2.3.4 bus2=UC102008.1.2.3.4 linecode=51_4 length=0.01285 units=km
New Line.RBT_102016 phases=4 bus1=BT18441.1.2.3.4 bus2=UC102016.1.2.3.4 linecode=51_4 length=0.02379 units=km
New Line.RBT_136902 phases=3 bus1=BT691761.3.1.4 bus2=UC136902.3.1.4 linecode=83_3 length=0.01 units=km
New Line.RBT_134753 phases=3 bus1=BT691761.3.1.4 bus2=UC134753.3.1.4 linecode=119_3 length=0.01505 units=km
New Line.RBT_124056 phases=4 bus1=BT18441.1.2.3.4 bus2=UC124056.1.2.3.4 linecode=51_4 length=0.01295 units=km
New Line.RBT_133604 phases=2 bus1=BT17641.1.4 bus2=UC133604.1.4 linecode=50_2 length=0.01479 units=km
New Line.RBT_102021 phases=2 bus1=BT18351.1.4 bus2=UC102021.1.4 linecode=105_2 length=0.015 units=km
New Line.RBT_102477 phases=2 bus1=BT294391.2.4 bus2=UC102477.2.4 linecode=108_2 length=0.018 units=km
New Line.RBT_101472 phases=2 bus1=BT294402.2.4 bus2=UC101472.2.4 linecode=50_2 length=0.027 units=km
New Line.RBT_125378 phases=2 bus1=BT294391.1.4 bus2=UC125378.1.4 linecode=50_2 length=0.017 units=km
New Line.RBT_129359 phases=2 bus1=ET1_3990.2.4 bus2=UC129359.2.4 linecode=108_2 length=0.02349 units=km
New Line.RBT_130677 phases=4 bus1=ET1_3990.1.2.3.4 bus2=UC130677.1.2.3.4 linecode=51_4 length=0.01377 units=km
New Line.RBT_131092 phases=2 bus1=BT247451.2.4 bus2=UC131092.2.4 linecode=108_2 length=0.016 units=km
New Line.RBT_134021 phases=4 bus1=BT330401.1.2.3.4 bus2=UC134021.1.2.3.4 linecode=51_4 length=0.03 units=km
New Line.RBT_138522 phases=4 bus1=BT330401.1.2.3.4 bus2=UC138522.1.2.3.4 linecode=51_4 length=0.017 units=km
New Line.RBT_136049 phases=4 bus1=BT247401.1.2.3.4 bus2=UC136049.1.2.3.4 linecode=109_4 length=0.02 units=km
New Line.RBT_133268 phases=2 bus1=BT348661.1.4 bus2=UC133268.1.4 linecode=50_2 length=0.02152 units=km
New Line.RBT_102404 phases=2 bus1=ET1_4030.2.4 bus2=UC102404.2.4 linecode=50_2 length=0.029 units=km
New Line.RBT_102405 phases=2 bus1=BT247491.1.4 bus2=UC102405.1.4 linecode=50_2 length=0.019 units=km
New Line.RBT_102406 phases=2 bus1=BT247451.1.4 bus2=UC102406.1.4 linecode=108_2 length=0.03 units=km
New Line.RBT_3002408 phases=4 bus1=BT247461.1.2.3.4 bus2=UC3002408.1.2.3.4 linecode=109_4 length=0.022 units=km
New Line.RBT_3038662 phases=2 bus1=BT587411.3.4 bus2=UC3038662.3.4 linecode=105_2 length=0.015 units=km
New Line.RBT_102046 phases=2 bus1=BT667421.1.4 bus2=UC102046.1.4 linecode=50_2 length=0.03 units=km
New Line.RBT_129817 phases=4 bus1=BT667441.1.2.3.4 bus2=UC129817.1.2.3.4 linecode=109_4 length=0.005 units=km
New Line.RBT_125328 phases=4 bus1=ET1_4097.1.2.3.4 bus2=UC125328.1.2.3.4 linecode=51_4 length=0.01791 units=km
New Line.RBT_123527 phases=4 bus1=BT781111.1.2.3.4 bus2=UC123527.1.2.3.4 linecode=51_4 length=0.0116 units=km
New Line.RBT_123789 phases=4 bus1=BT781151.1.2.3.4 bus2=UC123789.1.2.3.4 linecode=51_4 length=0.007 units=km
New Line.RBT_102479 phases=4 bus1=BT653301.1.2.3.4 bus2=UC102479.1.2.3.4 linecode=51_4 length=0.00886 units=km
New Line.RBT_130075 phases=4 bus1=ET1_4163.1.2.3.4 bus2=UC130075.1.2.3.4 linecode=51_4 length=0.03 units=km
New Line.RBT_3004090 phases=2 bus1=BT661411.2.4 bus2=UC3004090.2.4 linecode=50_2 length=0.017 units=km
New Line.RBT_3019065 phases=2 bus1=BT380931.1.4 bus2=UC3019065.1.4 linecode=50_2 length=0.018 units=km
New Line.RBT_130604 phases=4 bus1=ET1_4320.1.2.3.4 bus2=UC130604.1.2.3.4 linecode=51_4 length=0.01426 units=km
New Line.RBT_130605 phases=4 bus1=ET1_4321.1.2.3.4 bus2=UC130605.1.2.3.4 linecode=109_4 length=0.03 units=km
New Line.RBT_102293 phases=4 bus1=ET1_4322.1.2.3.4 bus2=UC102293.1.2.3.4 linecode=51_4 length=0.00579 units=km
New Line.RBT_102294 phases=4 bus1=BT669461.1.2.3.4 bus2=UC102294.1.2.3.4 linecode=51_4 length=0.02602 units=km
New Line.RBT_102295 phases=4 bus1=BT236171.1.2.3.4 bus2=UC102295.1.2.3.4 linecode=51_4 length=0.02617 units=km
New Line.RBT_102476 phases=2 bus1=ET1_4357.1.4 bus2=UC102476.1.4 linecode=108_2 length=0.02292 units=km
New Line.RBT_129815 phases=2 bus1=ET1_4357.1.4 bus2=UC129815.1.4 linecode=50_2 length=0.00933 units=km
New Line.RBT_131675 phases=2 bus1=ET1_4618.2.4 bus2=UC131675.2.4 linecode=50_2 length=0.00953 units=km
New Line.RBT_132502 phases=4 bus1=ET1_4625.1.2.3.4 bus2=UC132502.1.2.3.4 linecode=51_4 length=0.00623 units=km
New Line.RBT_132816 phases=4 bus1=BT366831.1.2.3.4 bus2=UC132816.1.2.3.4 linecode=51_4 length=0.012 units=km
New Line.RBT_136905 phases=2 bus1=BT777801.1.4 bus2=UC136905.1.4 linecode=105_2 length=0.01 units=km
New Line.RBT_120597 phases=4 bus1=ET1_4625.1.2.3.4 bus2=UC120597.1.2.3.4 linecode=51_4 length=0.01846 units=km
New Line.RBT_137365 phases=4 bus1=ET1_5103.1.2.3.4 bus2=UC137365.1.2.3.4 linecode=109_4 length=0.027 units=km
New Line.RBT_133542 phases=4 bus1=ET1_5103.1.2.3.4 bus2=UC133542.1.2.3.4 linecode=51_4 length=0.02791 units=km
New Line.RBT_102020 phases=3 bus1=ET1_5103.1.2.4 bus2=UC102020.1.2.4 linecode=83_3 length=0.02315 units=km
New Line.RBT_102278 phases=4 bus1=BT285751.1.2.3.4 bus2=UC102278.1.2.3.4 linecode=51_4 length=0.022 units=km
New Line.RBT_102279 phases=3 bus1=BT285781.1.2.4 bus2=UC102279.1.2.4 linecode=83_3 length=0.02 units=km
New Line.RBT_102281 phases=2 bus1=BT285821.2.4 bus2=UC102281.2.4 linecode=108_2 length=0.01727 units=km
New Line.RBT_131743 phases=4 bus1=BT285741.1.2.3.4 bus2=UC131743.1.2.3.4 linecode=51_4 length=0.02336 units=km
New Line.RBT_120481 phases=4 bus1=BT360991.1.2.3.4 bus2=UC120481.1.2.3.4 linecode=51_4 length=0.014 units=km
New Line.RBT_123717 phases=4 bus1=BT627171.1.2.3.4 bus2=UC123717.1.2.3.4 linecode=51_4 length=0.009 units=km
New Line.RBT_118398 phases=4 bus1=BT285791.1.2.3.4 bus2=UC118398.1.2.3.4 linecode=51_4 length=0.026 units=km
New Line.RBT_125710 phases=2 bus1=BT285801.2.4 bus2=UC125710.2.4 linecode=105_2 length=0.005 units=km
New Line.RBT_129970 phases=4 bus1=BT537881.1.2.3.4 bus2=UC129970.1.2.3.4 linecode=51_4 length=0.01529 units=km
New Line.RBT_130900 phases=3 bus1=BT285681.1.2.4 bus2=UC130900.1.2.4 linecode=110_3 length=0.023 units=km
New Line.RBT_121519 phases=4 bus1=BT789631.1.2.3.4 bus2=UC121519.1.2.3.4 linecode=51_4 length=0.03 units=km
New Line.RBT_131090 phases=2 bus1=BT285661.1.4 bus2=UC131090.1.4 linecode=105_2 length=0.03 units=km
New Line.RBT_102273 phases=4 bus1=BT284901.1.2.3.4 bus2=UC102273.1.2.3.4 linecode=51_4 length=0.013 units=km
New Line.RBT_102274 phases=2 bus1=BT284891.1.4 bus2=UC102274.1.4 linecode=50_2 length=0.009 units=km
New Line.RBT_102275 phases=4 bus1=BT285661.1.2.3.4 bus2=UC102275.1.2.3.4 linecode=51_4 length=0.028 units=km
New Line.RBT_102276 phases=4 bus1=BT285691.1.2.3.4 bus2=UC102276.1.2.3.4 linecode=51_4 length=0.013 units=km
New Line.RBT_102277 phases=2 bus1=BT285701.1.4 bus2=UC102277.1.4 linecode=50_2 length=0.024 units=km
New Line.RBT_102289 phases=2 bus1=ET1_520.1.4 bus2=UC102289.1.4 linecode=50_2 length=0.027 units=km
New Line.RBT_102298 phases=3 bus1=ET1_521.1.2.4 bus2=UC102298.1.2.4 linecode=83_3 length=0.013 units=km
New Line.RBT_3002411 phases=2 bus1=BT251411.2.4 bus2=UC3002411.2.4 linecode=50_2 length=0.01 units=km
New Line.RBT_101419 phases=2 bus1=BT476001.2.4 bus2=UC101419.2.4 linecode=50_2 length=0.01476 units=km
New Line.RBT_134022 phases=3 bus1=BT475991.1.2.4 bus2=UC134022.1.2.4 linecode=83_3 length=0.015 units=km
New Line.RBT_120777 phases=2 bus1=BT476001.1.4 bus2=UC120777.1.4 linecode=50_2 length=0.00449 units=km
New Line.RBT_133688 phases=2 bus1=ET1_5252.1.4 bus2=UC133688.1.4 linecode=50_2 length=0.01273 units=km
New Line.RBT_139135 phases=2 bus1=ET1_5252.1.4 bus2=UC139135.1.4 linecode=105_2 length=0.02 units=km
New Line.RBT_124052 phases=4 bus1=ET1_5335.1.2.3.4 bus2=UC124052.1.2.3.4 linecode=51_4 length=0.02604 units=km
New Line.RBT_133936 phases=2 bus1=BT362581.1.4 bus2=UC133936.1.4 linecode=105_2 length=0.017 units=km
New Line.RBT_102004 phases=2 bus1=BT362581.1.4 bus2=UC102004.1.4 linecode=50_2 length=0.02169 units=km
New Line.RBT_128563 phases=4 bus1=ET1_5510.1.2.3.4 bus2=UC128563.1.2.3.4 linecode=51_4 length=0.009 units=km
New Line.RBT_128273 phases=2 bus1=BT287991.1.4 bus2=UC128273.1.4 linecode=50_2 length=0.008 units=km
New Line.RBT_135324 phases=4 bus1=ET1_5556.1.2.3.4 bus2=UC135324.1.2.3.4 linecode=51_4 length=0.025 units=km
New Line.RBT_102499 phases=2 bus1=BT288001.2.4 bus2=UC102499.2.4 linecode=50_2 length=0.03 units=km
New Line.RBT_136043 phases=4 bus1=ET1_5774.1.2.3.4 bus2=UC136043.1.2.3.4 linecode=51_4 length=0.015 units=km
New Line.RBT_136042 phases=4 bus1=ET1_5775.1.2.3.4 bus2=UC136042.1.2.3.4 linecode=51_4 length=0.03 units=km
New Line.RBT_134473 phases=2 bus1=ET1_5964.3.4 bus2=UC134473.3.4 linecode=50_2 length=0.02461 units=km
New Line.RBT_132217 phases=4 bus1=ET1_5964.1.2.3.4 bus2=UC132217.1.2.3.4 linecode=51_4 length=0.02 units=km
New Line.RBT_134020 phases=4 bus1=ET1_6099.1.2.3.4 bus2=UC134020.1.2.3.4 linecode=51_4 length=0.00825 units=km
New Line.RBT_137433 phases=2 bus1=BT791921.1.4 bus2=UC137433.1.4 linecode=105_2 length=0.005 units=km
New Line.RBT_137435 phases=4 bus1=ET1_6107.1.2.3.4 bus2=UC137435.1.2.3.4 linecode=51_4 length=0.03 units=km
New Line.RBT_129302 phases=4 bus1=ET1_6107.1.2.3.4 bus2=UC129302.1.2.3.4 linecode=51_4 length=0.03 units=km
New Line.RBT_137681 phases=4 bus1=ET1_6226.1.2.3.4 bus2=UC137681.1.2.3.4 linecode=51_4 length=0.015 units=km
New Line.RBT_1020692 phases=2 bus1=BT303171.1.4 bus2=UC1020692.1.4 linecode=50_2 length=0.01672 units=km
New Line.RBT_1013812 phases=2 bus1=BT799311.1.4 bus2=UC1013812.1.4 linecode=50_2 length=0.03 units=km
New Line.RBT_1013813 phases=2 bus1=ET10_1246.2.4 bus2=UC1013813.2.4 linecode=50_2 length=0.027 units=km
New Line.RBT_1013804 phases=2 bus1=ET10_1247.2.4 bus2=UC1013804.2.4 linecode=50_2 length=0.03 units=km
New Line.RBT_1013805 phases=2 bus1=BT173761.2.4 bus2=UC1013805.2.4 linecode=105_2 length=0.011 units=km
New Line.RBT_1013807 phases=2 bus1=BT173721.1.4 bus2=UC1013807.1.4 linecode=104_2 length=0.03 units=km
New Line.RBT_1027528 phases=2 bus1=BT603431.1.4 bus2=UC1027528.1.4 linecode=105_2 length=0.005 units=km
New Line.RBT_1030162 phases=2 bus1=BT338301.1.4 bus2=UC1030162.1.4 linecode=50_2 length=0.0191 units=km
New Line.RBT_1035875 phases=2 bus1=BT173701.2.4 bus2=UC1035875.2.4 linecode=105_2 length=0.006 units=km
New Line.RBT_1033848 phases=2 bus1=BT173891.2.4 bus2=UC1033848.2.4 linecode=50_2 length=0.02327 units=km
New Line.RBT_1034489 phases=2 bus1=BT179311.2.4 bus2=UC1034489.2.4 linecode=50_2 length=0.02213 units=km
New Line.RBT_1026739 phases=2 bus1=BT179311.1.4 bus2=UC1026739.1.4 linecode=50_2 length=0.0228 units=km
New Line.RBT_1018474 phases=2 bus1=BT179311.2.4 bus2=UC1018474.2.4 linecode=50_2 length=0.02166 units=km
New Line.RBT_1013819 phases=2 bus1=BT179331.1.4 bus2=UC1013819.1.4 linecode=50_2 length=0.03 units=km
New Line.RBT_1013821 phases=2 bus1=BT179381.1.4 bus2=UC1013821.1.4 linecode=105_2 length=0.005 units=km
New Line.RBT_1013822 phases=2 bus1=BT179391.1.4 bus2=UC1013822.1.4 linecode=50_2 length=0.01236 units=km
New Line.RBT_1013823 phases=2 bus1=BT179401.1.4 bus2=UC1013823.1.4 linecode=50_2 length=0.021 units=km
New Line.RBT_1013827 phases=2 bus1=BT652371.1.4 bus2=UC1013827.1.4 linecode=50_2 length=0.01204 units=km
New Line.RBT_1026606 phases=2 bus1=BT179521.2.4 bus2=UC1026606.2.4 linecode=50_2 length=0.02682 units=km
New Line.RBT_1023081 phases=2 bus1=BT318811.1.4 bus2=UC1023081.1.4 linecode=50_2 length=0.01498 units=km
New Line.RBT_1022925 phases=2 bus1=BT318811.1.4 bus2=UC1022925.1.4 linecode=50_2 length=0.03 units=km
New Line.RBT_1036972 phases=2 bus1=BT652371.1.4 bus2=UC1036972.1.4 linecode=105_2 length=0.006 units=km
New Line.RBT_1030166 phases=2 bus1=BT179531.2.4 bus2=UC1030166.2.4 linecode=50_2 length=0.03 units=km
New Line.RBT_1031792 phases=2 bus1=BT180041.1.4 bus2=UC1031792.1.4 linecode=50_2 length=0.03 units=km
New Line.RBT_1037047 phases=2 bus1=BT180041.1.4 bus2=UC1037047.1.4 linecode=105_2 length=0.03 units=km
New Line.RBT_1035449 phases=2 bus1=BT180031.1.4 bus2=UC1035449.1.4 linecode=105_2 length=0.03 units=km
New Line.RBT_1024289 phases=2 bus1=BT327091.1.4 bus2=UC1024289.1.4 linecode=105_2 length=0.005 units=km
New Line.RBT_1013854 phases=2 bus1=BT180041.1.4 bus2=UC1013854.1.4 linecode=50_2 length=0.01624 units=km
New Line.RBT_1013855 phases=2 bus1=BT180011.2.4 bus2=UC1013855.2.4 linecode=50_2 length=0.01788 units=km
...
